1									
    SWAT Dec 23 2016    VER 2016/Rev 664                                                                 0/ 0/   0      0: 0: 0									
									
    General Input/Output section (file.cio):                                        									
    2/28/2018 12:00:00 AM ARCGIS-SWAT interface AV                                  									
                                                                                    									
									
									
	RCH	GIS	MON	AREAkm2	FLOW_INcms	FLOW_OUTcms	SED_OUTtons	TOT Nkg	TOT Pkg
REACH	1	0	2000	3.74E+00	4.88E-02	4.88E-02	4.80E+01	1.24E+03	9.62E+02
REACH	2	0	2000	1.07E+01	1.42E-01	1.41E-01	1.96E+02	5.20E+03	2.74E+03
REACH	3	0	2000	4.18E+00	5.47E-02	5.46E-02	5.03E+01	6.97E+02	9.69E+02
REACH	4	0	2000	2.49E+00	3.41E-02	3.41E-02	2.59E+01	1.27E+03	6.16E+02
REACH	5	0	2000	1.64E+01	2.14E-01	2.14E-01	3.07E+02	8.81E+03	3.64E+03
REACH	6	0	2000	9.70E+00	1.26E-01	1.26E-01	1.61E+02	7.84E+03	1.52E+03
REACH	7	0	2000	5.96E+00	7.87E-02	7.86E-02	7.50E+01	4.49E+03	1.17E+03
REACH	8	0	2000	3.02E+01	3.91E-01	3.90E-01	1.45E+03	2.14E+04	5.65E+03
REACH	9	0	2000	2.50E+00	3.34E-02	3.34E-02	1.14E+02	9.47E+02	5.83E+02
REACH	10	0	2000	7.96E+00	1.03E-01	1.02E-01	1.05E+02	1.95E+03	1.18E+03
REACH	11	0	2000	3.68E+00	4.92E-02	4.91E-02	3.83E+01	4.09E+03	8.00E+02
REACH	12	0	2000	1.10E+01	1.45E-01	1.45E-01	2.01E+02	1.38E+04	1.94E+03
REACH	13	0	2000	5.55E+01	7.10E-01	7.10E-01	5.60E+02	4.85E+04	8.49E+03
REACH	14	0	2000	3.81E+00	5.09E-02	5.08E-02	3.44E+01	4.04E+03	8.13E+02
REACH	15	0	2000	2.49E+00	2.84E-02	2.84E-02	4.52E+01	1.57E+03	8.38E+01
REACH	16	0	2000	2.12E+00	2.62E-02	2.62E-02	1.73E+01	5.87E+02	1.53E+02
REACH	17	0	2000	4.25E+00	5.68E-02	5.68E-02	2.69E+01	1.09E+04	9.38E+02
REACH	18	0	2000	2.81E+00	3.79E-02	3.79E-02	1.88E+01	2.99E+03	4.96E+02
REACH	19	0	2000	2.66E+01	3.46E-01	3.46E-01	9.30E+02	9.07E+04	3.84E+03
REACH	20	0	2000	1.69E+01	2.21E-01	2.20E-01	5.54E+02	5.92E+04	2.84E+03
REACH	21	0	2000	5.73E+00	7.73E-02	7.71E-02	5.01E+01	7.29E+03	8.47E+02
REACH	22	0	2000	8.87E+00	1.18E-01	1.18E-01	1.13E+02	3.32E+04	1.91E+03
REACH	23	0	2000	5.22E+00	6.88E-02	6.87E-02	4.83E+01	3.92E+03	5.87E+02
REACH	24	0	2000	9.73E+01	1.25E+00	1.25E+00	5.17E+03	1.77E+05	1.33E+04
REACH	25	0	2000	4.72E+00	7.88E-02	7.87E-02	1.70E+02	3.17E+03	5.91E+02
REACH	26	0	2000	2.81E+00	3.64E-02	3.63E-02	5.61E+01	3.92E+02	1.24E+02
REACH	27	0	2000	1.96E+00	2.42E-02	2.42E-02	1.99E+01	7.11E+02	1.65E+02
REACH	28	0	2000	2.90E+00	3.90E-02	3.90E-02	5.20E+01	4.31E+02	5.36E+01
REACH	29	0	2000	1.04E+02	1.33E+00	1.33E+00	7.27E+03	2.03E+05	1.38E+04
REACH	30	0	2000	3.88E+00	6.27E-02	6.27E-02	4.37E+02	5.54E+02	9.31E+01
REACH	31	0	2000	8.24E+00	1.61E-01	1.61E-01	5.05E+02	1.86E+04	4.08E+03
REACH	32	0	2000	4.35E+00	5.92E-02	5.91E-02	5.23E+01	2.78E+03	6.82E+02
REACH	33	0	2000	2.71E+00	3.67E-02	3.67E-02	1.50E+02	1.33E+03	1.52E+02
REACH	34	0	2000	3.84E+02	1.62E+01	1.61E+01	1.43E+05	1.11E+06	1.14E+05
REACH	35	0	2000	5.41E+00	7.25E-02	7.25E-02	1.06E+02	1.33E+03	3.52E+02
REACH	36	0	2000	4.91E+00	6.66E-02	6.66E-02	1.61E+02	2.55E+03	4.04E+02
REACH	37	0	2000	2.07E+00	2.87E-02	2.87E-02	1.57E+02	3.50E+02	4.77E+01
REACH	38	0	2000	3.18E+00	4.15E-02	4.15E-02	5.40E+01	6.24E+02	4.85E+01
REACH	39	0	2000	4.03E+02	1.65E+01	1.65E+01	7.73E+04	1.15E+06	1.20E+05
REACH	40	0	2000	5.24E+00	7.07E-02	7.06E-02	1.73E+02	1.45E+03	1.93E+02
REACH	41	0	2000	4.86E+00	6.71E-02	6.70E-02	5.34E+01	3.74E+03	6.33E+02
REACH	42	0	2000	4.05E+02	1.65E+01	1.65E+01	5.58E+05	1.15E+06	1.20E+05
REACH	43	0	2000	1.18E+00	1.53E-02	1.53E-02	3.17E+01	5.09E+02	2.59E+01
REACH	44	0	2000	8.13E+00	1.07E-01	1.07E-01	2.09E+02	5.32E+03	8.54E+02
REACH	45	0	2000	1.41E+00	2.10E-02	2.10E-02	4.08E+01	4.54E+02	2.11E+01
REACH	46	0	2000	3.65E+02	1.56E+01	1.56E+01	1.46E+05	9.56E+05	8.91E+04
REACH	47	0	2000	1.11E+02	1.43E+00	1.42E+00	9.02E+03	2.26E+05	1.42E+04
REACH	48	0	2000	3.97E+01	5.13E-01	5.12E-01	3.03E+03	2.92E+04	3.30E+03
REACH	49	0	2000	2.33E+00	2.77E-02	2.77E-02	6.23E+01	5.72E+02	1.19E+02
REACH	50	0	2000	2.09E+01	2.81E-01	2.80E-01	1.47E+03	7.50E+03	1.07E+03
REACH	51	0	2000	1.67E+02	2.14E+00	2.14E+00	1.83E+04	2.85E+05	1.84E+04
REACH	52	0	2000	1.89E+00	2.36E-02	2.36E-02	3.86E+01	4.45E+02	8.92E+01
REACH	53	0	2000	1.60E+01	2.06E-01	2.06E-01	5.37E+02	1.20E+04	1.41E+03
REACH	54	0	2000	1.73E+01	2.48E-01	2.48E-01	9.99E+02	3.38E+03	5.08E+02
REACH	55	0	2000	3.94E+00	5.12E-02	5.11E-02	3.74E+01	3.95E+03	3.51E+02
REACH	56	0	2000	1.34E+01	1.95E-01	1.95E-01	1.08E+03	1.56E+03	2.37E+02
REACH	57	0	2000	9.64E+00	1.42E-01	1.42E-01	1.97E+02	2.32E+03	1.39E+02
REACH	58	0	2000	3.44E+02	1.53E+01	1.53E+01	1.07E+05	9.48E+05	8.84E+04
REACH	59	0	2000	3.24E+00	3.88E-02	3.88E-02	9.78E+01	4.76E+02	8.00E+01
REACH	60	0	2000	5.68E+00	7.65E-02	7.64E-02	6.23E+01	2.94E+03	5.17E+02
REACH	61	0	2000	1.12E+01	1.45E-01	1.45E-01	2.85E+02	7.59E+03	1.13E+03
REACH	62	0	2000	1.92E+02	2.47E+00	2.47E+00	2.43E+04	3.04E+05	1.99E+04
REACH	63	0	2000	1.98E+02	2.55E+00	2.54E+00	1.19E+04	3.24E+05	2.01E+04
REACH	64	0	2000	6.58E+00	8.54E-02	8.53E-02	7.24E+01	4.14E+03	9.13E+02
REACH	65	0	2000	3.65E+00	4.57E-02	4.57E-02	1.44E+02	6.77E+02	4.58E+01
REACH	66	0	2000	8.10E+00	1.25E-01	1.24E-01	3.48E+02	9.52E+02	1.56E+02
REACH	67	0	2000	9.65E+01	1.21E+01	1.21E+01	9.76E+04	5.99E+05	6.70E+04
REACH	68	0	2000	7.89E+00	1.28E-01	1.28E-01	2.05E+02	1.62E+03	3.12E+02
REACH	69	0	2000	3.21E+01	4.47E-01	4.46E-01	3.27E+03	7.29E+03	7.04E+02
REACH	70	0	2000	5.92E+00	8.62E-02	8.61E-02	2.61E+02	1.39E+03	2.98E+02
REACH	71	0	2000	3.90E+00	5.97E-02	5.96E-02	8.33E+01	3.52E+02	7.67E+01
REACH	72	0	2000	2.92E+00	3.60E-02	3.59E-02	6.19E+01	1.10E+03	1.12E+02
REACH	73	0	2000	4.77E+00	5.75E-02	5.74E-02	4.63E+01	1.80E+03	3.69E+02
REACH	74	0	2000	1.45E+01	2.01E-01	2.00E-01	3.59E+02	3.38E+03	4.47E+02
REACH	75	0	2000	6.68E+00	8.79E-02	8.79E-02	5.81E+02	8.25E+02	1.71E+02
REACH	76	0	2000	6.79E+00	9.18E-02	9.17E-02	7.94E+01	3.00E+03	1.13E+03
REACH	77	0	2000	1.10E+01	1.44E-01	1.44E-01	5.19E+02	5.07E+03	1.19E+03
REACH	78	0	2000	2.01E+01	2.58E-01	2.58E-01	1.74E+03	9.69E+03	1.61E+03
REACH	79	0	2000	5.41E+01	1.14E+01	1.14E+01	1.85E+05	4.86E+05	5.36E+04
REACH	80	0	2000	2.89E+00	3.68E-02	3.68E-02	9.42E+01	4.50E+02	4.57E+01
REACH	81	0	2000	1.14E+01	1.62E-01	1.62E-01	4.37E+02	2.27E+03	2.04E+02
REACH	82	0	2000	1.28E+00	1.92E-02	1.91E-02	1.94E+01	5.43E+01	3.08E+01
REACH	83	0	2000	9.45E-01	1.41E-02	1.41E-02	1.53E+01	1.30E+02	1.10E+02
REACH	84	0	2000	2.66E-01	3.90E-03	3.90E-03	5.70E+00	6.97E+01	5.38E+00
REACH	85	0	2000	6.38E+00	9.03E-02	9.02E-02	1.83E+02	7.87E+02	1.24E+02
REACH	86	0	2000	2.42E+00	3.52E-02	3.52E-02	1.74E+01	3.70E+02	1.54E+02
REACH	87	0	2000	4.41E+00	5.23E-02	5.22E-02	1.11E+02	6.57E+02	9.24E+01
REACH	88	0	2000	7.34E+00	1.07E-01	1.07E-01	1.47E+02	1.53E+03	1.61E+02
REACH	89	0	2000	4.15E+01	1.12E+01	1.12E+01	1.70E+05	4.79E+05	5.25E+04
REACH	90	0	2000	3.15E+00	3.90E-02	3.89E-02	6.48E+01	8.74E+02	1.08E+02
REACH	91	0	2000	1.85E+01	2.28E-01	2.28E-01	1.10E+03	3.53E+03	4.08E+02
REACH	92	0	2000	9.86E+00	1.52E-01	1.51E-01	7.98E+02	1.97E+03	2.93E+02
REACH	93	0	2000	4.71E+00	8.37E-02	8.36E-02	2.16E+02	8.80E+02	8.99E+01
REACH	94	0	2000	4.60E+00	1.07E+01	1.07E+01	2.71E+05	4.70E+05	5.15E+04
REACH	95	0	2000	4.90E+00	5.94E-02	5.93E-02	1.66E+02	8.51E+02	8.91E+01
REACH	96	0	2000	9.49E+00	1.21E-01	1.21E-01	5.19E+02	1.75E+03	2.56E+02
REACH	97	0	2000	1.05E+00	1.49E-02	1.48E-02	1.08E+01	3.36E+02	6.30E+01
REACH	1	0	2001	3.74E+00	4.01E-02	4.00E-02	5.64E+01	8.03E+02	5.62E+02
REACH	2	0	2001	1.07E+01	1.16E-01	1.15E-01	1.88E+02	4.36E+03	1.80E+03
REACH	3	0	2001	4.18E+00	4.56E-02	4.55E-02	5.60E+01	3.58E+02	6.28E+02
REACH	4	0	2001	2.49E+00	2.77E-02	2.77E-02	3.70E+01	7.54E+02	3.90E+02
REACH	5	0	2001	1.64E+01	1.78E-01	1.78E-01	3.94E+02	7.34E+03	2.39E+03
REACH	6	0	2001	9.70E+00	1.06E-01	1.06E-01	1.56E+02	3.38E+03	8.28E+02
REACH	7	0	2001	5.96E+00	6.59E-02	6.58E-02	8.58E+01	2.12E+03	6.92E+02
REACH	8	0	2001	3.02E+01	3.28E-01	3.28E-01	1.03E+03	1.35E+04	3.63E+03
REACH	9	0	2001	2.50E+00	2.89E-02	2.89E-02	9.47E+01	7.87E+02	4.75E+02
REACH	10	0	2001	7.96E+00	8.72E-02	8.70E-02	9.75E+01	1.22E+03	7.96E+02
REACH	11	0	2001	3.68E+00	4.11E-02	4.10E-02	5.89E+01	1.08E+03	4.95E+02
REACH	12	0	2001	1.10E+01	1.21E-01	1.21E-01	1.79E+02	4.05E+03	1.25E+03
REACH	13	0	2001	5.55E+01	5.99E-01	5.98E-01	3.81E+02	2.31E+04	5.34E+03
REACH	14	0	2001	3.81E+00	4.12E-02	4.11E-02	5.10E+01	1.47E+03	5.25E+02
REACH	15	0	2001	2.49E+00	2.43E-02	2.42E-02	3.66E+01	4.36E+02	5.46E+01
REACH	16	0	2001	2.12E+00	2.26E-02	2.26E-02	2.35E+01	2.59E+02	1.03E+02
REACH	17	0	2001	4.25E+00	4.69E-02	4.68E-02	4.45E+01	3.24E+03	5.95E+02
REACH	18	0	2001	2.81E+00	3.21E-02	3.21E-02	2.99E+01	1.04E+03	3.72E+02
REACH	19	0	2001	2.66E+01	2.94E-01	2.94E-01	7.05E+02	1.57E+04	2.05E+03
REACH	20	0	2001	1.69E+01	1.87E-01	1.86E-01	4.45E+02	1.07E+04	1.58E+03
REACH	21	0	2001	5.73E+00	6.54E-02	6.52E-02	7.27E+01	2.44E+03	6.18E+02
REACH	22	0	2001	8.87E+00	9.95E-02	9.92E-02	1.20E+02	6.37E+03	1.07E+03
REACH	23	0	2001	5.22E+00	5.90E-02	5.89E-02	6.17E+01	1.88E+03	4.83E+02
REACH	24	0	2001	9.73E+01	1.06E+00	1.06E+00	3.47E+03	4.83E+04	8.04E+03
REACH	25	0	2001	4.72E+00	7.18E-02	7.17E-02	1.84E+02	1.79E+03	3.93E+02
REACH	26	0	2001	2.81E+00	3.14E-02	3.14E-02	6.38E+01	2.79E+02	1.05E+02
REACH	27	0	2001	1.96E+00	2.08E-02	2.08E-02	3.42E+01	3.99E+02	1.43E+02
REACH	28	0	2001	2.90E+00	3.48E-02	3.48E-02	5.56E+01	2.67E+02	4.87E+01
REACH	29	0	2001	1.04E+02	1.13E+00	1.13E+00	5.66E+03	5.31E+04	8.47E+03
REACH	30	0	2001	3.88E+00	5.69E-02	5.69E-02	3.78E+02	5.04E+02	8.37E+01
REACH	31	0	2001	8.24E+00	1.58E-01	1.58E-01	4.69E+02	2.42E+04	5.27E+03
REACH	32	0	2001	4.35E+00	5.17E-02	5.16E-02	6.61E+01	1.55E+03	5.54E+02
REACH	33	0	2001	2.71E+00	3.21E-02	3.21E-02	1.29E+02	1.09E+03	1.42E+02
REACH	34	0	2001	3.84E+02	1.53E+01	1.53E+01	1.31E+05	8.10E+05	1.03E+05
REACH	35	0	2001	5.41E+00	6.30E-02	6.30E-02	1.52E+02	1.10E+03	2.60E+02
REACH	36	0	2001	4.91E+00	5.82E-02	5.81E-02	1.78E+02	2.18E+03	3.83E+02
REACH	37	0	2001	2.07E+00	2.53E-02	2.53E-02	1.35E+02	3.19E+02	3.76E+01
REACH	38	0	2001	3.18E+00	3.72E-02	3.72E-02	7.83E+01	4.56E+02	3.90E+01
REACH	39	0	2001	4.03E+02	1.56E+01	1.56E+01	6.69E+04	8.45E+05	1.09E+05
REACH	40	0	2001	5.24E+00	6.20E-02	6.18E-02	2.01E+02	1.10E+03	1.51E+02
REACH	41	0	2001	4.86E+00	5.92E-02	5.91E-02	6.54E+01	1.88E+03	6.26E+02
REACH	42	0	2001	4.05E+02	1.57E+01	1.57E+01	4.44E+05	8.46E+05	1.09E+05
REACH	43	0	2001	1.18E+00	1.37E-02	1.37E-02	3.40E+01	4.70E+02	1.76E+01
REACH	44	0	2001	8.13E+00	9.40E-02	9.38E-02	2.03E+02	2.82E+03	7.44E+02
REACH	45	0	2001	1.41E+00	1.90E-02	1.89E-02	5.01E+01	3.69E+02	1.71E+01
REACH	46	0	2001	3.65E+02	1.48E+01	1.48E+01	1.27E+05	6.54E+05	7.72E+04
REACH	47	0	2001	1.11E+02	1.21E+00	1.21E+00	6.28E+03	5.82E+04	8.77E+03
REACH	48	0	2001	3.97E+01	4.43E-01	4.42E-01	2.07E+03	1.46E+04	2.71E+03
REACH	49	0	2001	2.33E+00	2.40E-02	2.39E-02	7.01E+01	4.63E+02	7.65E+01
REACH	50	0	2001	2.09E+01	2.46E-01	2.46E-01	1.09E+03	6.14E+03	8.72E+02
REACH	51	0	2001	1.67E+02	1.83E+00	1.83E+00	1.18E+04	8.08E+04	1.20E+04
REACH	52	0	2001	1.89E+00	2.06E-02	2.06E-02	3.52E+01	3.61E+02	7.74E+01
REACH	53	0	2001	1.60E+01	1.77E-01	1.77E-01	4.93E+02	5.97E+03	1.21E+03
REACH	54	0	2001	1.73E+01	2.21E-01	2.21E-01	9.41E+02	2.56E+03	3.70E+02
REACH	55	0	2001	3.94E+00	4.31E-02	4.30E-02	4.70E+01	1.71E+03	3.03E+02
REACH	56	0	2001	1.34E+01	1.71E-01	1.71E-01	9.15E+02	1.05E+03	1.96E+02
REACH	57	0	2001	9.64E+00	1.28E-01	1.28E-01	1.77E+02	2.01E+03	1.20E+02
REACH	58	0	2001	3.44E+02	1.45E+01	1.45E+01	8.89E+04	6.49E+05	7.67E+04
REACH	59	0	2001	3.24E+00	3.38E-02	3.38E-02	1.04E+02	4.10E+02	4.98E+01
REACH	60	0	2001	5.68E+00	6.70E-02	6.68E-02	8.29E+01	1.63E+03	3.95E+02
REACH	61	0	2001	1.12E+01	1.23E-01	1.23E-01	3.21E+02	3.78E+03	8.71E+02
REACH	62	0	2001	1.92E+02	2.12E+00	2.12E+00	1.68E+04	9.09E+04	1.31E+04
REACH	63	0	2001	1.98E+02	2.19E+00	2.18E+00	8.02E+03	9.57E+04	1.33E+04
REACH	64	0	2001	6.58E+00	7.07E-02	7.05E-02	8.80E+01	2.26E+03	7.18E+02
REACH	65	0	2001	3.65E+00	3.98E-02	3.97E-02	1.21E+02	4.63E+02	3.72E+01
REACH	66	0	2001	8.10E+00	1.10E-01	1.10E-01	2.93E+02	6.08E+02	1.34E+02
REACH	67	0	2001	9.65E+01	1.17E+01	1.17E+01	8.08E+04	5.41E+05	6.24E+04
REACH	68	0	2001	7.89E+00	1.14E-01	1.14E-01	2.50E+02	1.23E+03	2.42E+02
REACH	69	0	2001	3.21E+01	3.89E-01	3.89E-01	2.44E+03	3.42E+03	5.49E+02
REACH	70	0	2001	5.92E+00	7.84E-02	7.83E-02	3.32E+02	1.22E+03	2.03E+02
REACH	71	0	2001	3.90E+00	5.27E-02	5.26E-02	8.58E+01	2.17E+02	6.64E+01
REACH	72	0	2001	2.92E+00	3.06E-02	3.06E-02	6.70E+01	6.48E+02	8.67E+01
REACH	73	0	2001	4.77E+00	4.91E-02	4.89E-02	6.64E+01	1.10E+03	2.98E+02
REACH	74	0	2001	1.45E+01	1.74E-01	1.73E-01	3.43E+02	1.49E+03	3.45E+02
REACH	75	0	2001	6.68E+00	7.65E-02	7.64E-02	4.61E+02	6.01E+02	1.23E+02
REACH	76	0	2001	6.79E+00	7.73E-02	7.71E-02	1.02E+02	1.71E+03	8.77E+02
REACH	77	0	2001	1.10E+01	1.21E-01	1.21E-01	4.16E+02	2.66E+03	9.09E+02
REACH	78	0	2001	2.01E+01	2.19E-01	2.18E-01	1.18E+03	5.11E+03	1.22E+03
REACH	79	0	2001	5.41E+01	1.11E+01	1.11E+01	1.50E+05	4.34E+05	4.96E+04
REACH	80	0	2001	2.89E+00	3.14E-02	3.13E-02	7.92E+01	3.14E+02	3.54E+01
REACH	81	0	2001	1.14E+01	1.41E-01	1.41E-01	3.45E+02	1.05E+03	1.70E+02
REACH	82	0	2001	1.28E+00	1.65E-02	1.65E-02	1.79E+01	3.71E+01	2.58E+01
REACH	83	0	2001	9.45E-01	1.22E-02	1.22E-02	1.84E+01	8.43E+01	7.61E+01
REACH	84	0	2001	2.66E-01	3.46E-03	3.45E-03	5.54E+00	6.34E+01	4.14E+00
REACH	85	0	2001	6.38E+00	7.93E-02	7.92E-02	1.52E+02	3.69E+02	1.04E+02
REACH	86	0	2001	2.42E+00	3.08E-02	3.07E-02	1.96E+01	2.50E+02	1.43E+02
REACH	87	0	2001	4.41E+00	4.55E-02	4.54E-02	1.29E+02	4.28E+02	7.13E+01
REACH	88	0	2001	7.34E+00	9.29E-02	9.27E-02	1.41E+02	6.71E+02	1.32E+02
REACH	89	0	2001	4.15E+01	1.10E+01	1.10E+01	1.36E+05	4.28E+05	4.88E+04
REACH	90	0	2001	3.15E+00	3.34E-02	3.33E-02	6.99E+01	7.37E+02	6.25E+01
REACH	91	0	2001	1.85E+01	1.88E-01	1.87E-01	7.60E+02	1.93E+03	2.51E+02
REACH	92	0	2001	9.86E+00	1.40E-01	1.40E-01	7.27E+02	1.59E+03	2.37E+02
REACH	93	0	2001	4.71E+00	8.14E-02	8.13E-02	1.62E+02	7.82E+02	7.32E+01
REACH	94	0	2001	4.60E+00	1.05E+01	1.05E+01	2.22E+05	4.23E+05	4.81E+04
REACH	95	0	2001	4.90E+00	4.86E-02	4.84E-02	1.28E+02	4.92E+02	5.38E+01
REACH	96	0	2001	9.49E+00	1.00E-01	1.00E-01	4.27E+02	9.37E+02	1.76E+02
REACH	97	0	2001	1.05E+00	1.27E-02	1.26E-02	1.37E+01	1.73E+02	4.44E+01
REACH	1	0	2002	3.74E+00	5.91E-02	5.79E-02	7.37E+01	9.23E+02	1.21E+03
REACH	2	0	2002	1.07E+01	1.70E-01	1.67E-01	2.71E+02	4.06E+03	3.24E+03
REACH	3	0	2002	4.18E+00	7.12E-02	7.05E-02	9.46E+01	7.43E+02	1.37E+03
REACH	4	0	2002	2.49E+00	4.06E-02	4.04E-02	4.79E+01	1.81E+03	8.74E+02
REACH	5	0	2002	1.64E+01	2.63E-01	2.60E-01	4.64E+02	7.28E+03	4.45E+03
REACH	6	0	2002	9.70E+00	1.60E-01	1.58E-01	2.28E+02	1.10E+04	2.17E+03
REACH	7	0	2002	5.96E+00	9.90E-02	9.71E-02	1.16E+02	6.29E+03	1.70E+03
REACH	8	0	2002	3.02E+01	4.89E-01	4.85E-01	1.51E+03	2.14E+04	7.40E+03
REACH	9	0	2002	2.50E+00	4.52E-02	4.52E-02	1.63E+02	1.34E+03	1.02E+03
REACH	10	0	2002	7.96E+00	1.37E-01	1.35E-01	1.60E+02	2.59E+03	1.74E+03
REACH	11	0	2002	3.68E+00	6.09E-02	5.96E-02	7.29E+01	7.27E+03	1.26E+03
REACH	12	0	2002	1.10E+01	1.84E-01	1.82E-01	2.66E+02	2.08E+04	2.98E+03
REACH	13	0	2002	5.55E+01	9.07E-01	9.00E-01	7.94E+02	5.97E+04	1.09E+04
REACH	14	0	2002	3.81E+00	6.35E-02	6.21E-02	7.33E+01	4.91E+03	1.12E+03
REACH	15	0	2002	2.49E+00	4.16E-02	4.07E-02	4.98E+01	1.39E+03	1.25E+02
REACH	16	0	2002	2.12E+00	3.67E-02	3.61E-02	3.62E+01	7.84E+02	2.29E+02
REACH	17	0	2002	4.25E+00	7.07E-02	6.99E-02	6.19E+01	2.36E+04	1.51E+03
REACH	18	0	2002	2.81E+00	5.09E-02	5.02E-02	4.76E+01	5.57E+03	8.09E+02
REACH	19	0	2002	2.66E+01	4.47E-01	4.41E-01	1.21E+03	1.61E+05	6.50E+03
REACH	20	0	2002	1.69E+01	2.91E-01	2.87E-01	6.85E+02	1.06E+05	4.89E+03
REACH	21	0	2002	5.73E+00	9.31E-02	9.09E-02	8.80E+01	1.13E+04	1.29E+03
REACH	22	0	2002	8.87E+00	1.53E-01	1.50E-01	1.84E+02	6.94E+04	3.21E+03
REACH	23	0	2002	5.22E+00	8.70E-02	8.53E-02	8.48E+01	5.52E+03	9.44E+02
REACH	24	0	2002	9.73E+01	1.60E+00	1.60E+00	6.26E+03	2.46E+05	1.94E+04
REACH	25	0	2002	4.72E+00	1.00E-01	9.87E-02	2.47E+02	2.85E+03	4.46E+02
REACH	26	0	2002	2.81E+00	4.58E-02	4.55E-02	4.61E+01	6.72E+02	1.93E+02
REACH	27	0	2002	1.96E+00	3.01E-02	2.97E-02	4.12E+01	8.96E+02	2.69E+02
REACH	28	0	2002	2.90E+00	4.83E-02	4.78E-02	9.68E+01	5.96E+02	7.91E+01
REACH	29	0	2002	1.04E+02	1.70E+00	1.69E+00	8.64E+03	2.55E+05	2.04E+04
REACH	30	0	2002	3.88E+00	7.38E-02	7.38E-02	5.31E+02	8.54E+02	1.30E+02
REACH	31	0	2002	8.24E+00	2.06E-01	2.03E-01	6.97E+02	3.15E+04	5.95E+03
REACH	32	0	2002	4.35E+00	7.14E-02	7.01E-02	7.48E+01	7.24E+03	1.10E+03
REACH	33	0	2002	2.71E+00	4.57E-02	4.55E-02	2.00E+02	1.52E+03	2.52E+02
REACH	34	0	2002	3.84E+02	1.83E+01	1.83E+01	1.61E+05	1.28E+06	1.44E+05
REACH	35	0	2002	5.41E+00	8.84E-02	8.82E-02	2.22E+02	1.82E+03	5.05E+02
REACH	36	0	2002	4.91E+00	8.22E-02	8.19E-02	2.74E+02	2.84E+03	6.79E+02
REACH	37	0	2002	2.07E+00	3.44E-02	3.44E-02	2.13E+02	5.13E+02	6.43E+01
REACH	38	0	2002	3.18E+00	5.19E-02	5.09E-02	1.22E+02	9.90E+02	6.75E+01
REACH	39	0	2002	4.03E+02	1.87E+01	1.86E+01	8.25E+04	1.34E+06	1.50E+05
REACH	40	0	2002	5.24E+00	8.93E-02	8.76E-02	2.86E+02	2.49E+03	3.04E+02
REACH	41	0	2002	4.86E+00	8.28E-02	8.11E-02	8.16E+01	1.26E+04	1.18E+03
REACH	42	0	2002	4.05E+02	1.87E+01	1.87E+01	5.59E+05	1.34E+06	1.50E+05
REACH	43	0	2002	1.18E+00	1.85E-02	1.84E-02	3.77E+01	7.74E+02	3.90E+01
REACH	44	0	2002	8.13E+00	1.31E-01	1.29E-01	2.64E+02	1.24E+04	1.52E+03
REACH	45	0	2002	1.41E+00	2.48E-02	2.46E-02	6.06E+01	6.62E+02	2.82E+01
REACH	46	0	2002	3.65E+02	1.77E+01	1.77E+01	1.55E+05	1.10E+06	1.17E+05
REACH	47	0	2002	1.11E+02	1.82E+00	1.81E+00	1.09E+04	2.64E+05	2.10E+04
REACH	48	0	2002	3.97E+01	6.18E-01	6.17E-01	3.43E+03	6.35E+04	5.94E+03
REACH	49	0	2002	2.33E+00	3.59E-02	3.54E-02	1.08E+02	9.08E+02	1.66E+02
REACH	50	0	2002	2.09E+01	3.43E-01	3.41E-01	1.59E+03	1.02E+04	1.68E+03
REACH	51	0	2002	1.67E+02	2.69E+00	2.68E+00	1.73E+04	3.47E+05	2.82E+04
REACH	52	0	2002	1.89E+00	3.02E-02	3.00E-02	4.11E+01	6.19E+02	1.54E+02
REACH	53	0	2002	1.60E+01	2.53E-01	2.49E-01	7.46E+02	2.71E+04	2.52E+03
REACH	54	0	2002	1.73E+01	2.83E-01	2.82E-01	1.14E+03	5.41E+03	7.29E+02
REACH	55	0	2002	3.94E+00	6.25E-02	6.10E-02	5.47E+01	6.97E+03	5.63E+02
REACH	56	0	2002	1.34E+01	2.30E-01	2.29E-01	1.26E+03	2.27E+03	3.23E+02
REACH	57	0	2002	9.64E+00	1.66E-01	1.63E-01	2.53E+02	3.48E+03	1.95E+02
REACH	58	0	2002	3.44E+02	1.73E+01	1.73E+01	1.09E+05	1.09E+06	1.16E+05
REACH	59	0	2002	3.24E+00	4.66E-02	4.61E-02	1.45E+02	7.44E+02	1.04E+02
REACH	60	0	2002	5.68E+00	1.01E-01	9.90E-02	1.03E+02	6.93E+03	8.59E+02
REACH	61	0	2002	1.12E+01	1.74E-01	1.70E-01	4.11E+02	1.96E+04	1.90E+03
REACH	62	0	2002	1.92E+02	3.09E+00	3.09E+00	2.72E+04	3.61E+05	3.04E+04
REACH	63	0	2002	1.98E+02	3.18E+00	3.18E+00	1.16E+04	3.67E+05	3.07E+04
REACH	64	0	2002	6.58E+00	1.02E-01	9.99E-02	1.16E+02	1.11E+04	1.46E+03
REACH	65	0	2002	3.65E+00	5.43E-02	5.30E-02	1.74E+02	1.09E+03	5.99E+01
REACH	66	0	2002	8.10E+00	1.48E-01	1.46E-01	4.03E+02	1.43E+03	2.00E+02
REACH	67	0	2002	9.65E+01	1.33E+01	1.33E+01	9.16E+04	7.04E+05	8.40E+04
REACH	68	0	2002	7.89E+00	1.41E-01	1.39E-01	3.15E+02	2.37E+03	4.20E+02
REACH	69	0	2002	3.21E+01	5.54E-01	5.52E-01	4.07E+03	1.03E+04	1.02E+03
REACH	70	0	2002	5.92E+00	1.09E-01	1.08E-01	3.59E+02	2.48E+03	5.32E+02
REACH	71	0	2002	3.90E+00	7.26E-02	7.13E-02	8.70E+01	5.03E+02	1.00E+02
REACH	72	0	2002	2.92E+00	4.98E-02	4.87E-02	8.57E+01	1.49E+03	1.78E+02
REACH	73	0	2002	4.77E+00	7.96E-02	7.79E-02	8.66E+01	2.66E+03	6.32E+02
REACH	74	0	2002	1.45E+01	2.46E-01	2.42E-01	5.17E+02	5.20E+03	6.21E+02
REACH	75	0	2002	6.68E+00	1.18E-01	1.17E-01	8.18E+02	1.51E+03	2.65E+02
REACH	76	0	2002	6.79E+00	1.07E-01	1.04E-01	1.24E+02	5.52E+03	1.69E+03
REACH	77	0	2002	1.10E+01	1.72E-01	1.69E-01	5.93E+02	8.59E+03	1.84E+03
REACH	78	0	2002	2.01E+01	3.20E-01	3.20E-01	2.26E+03	1.42E+04	2.62E+03
REACH	79	0	2002	5.41E+01	1.25E+01	1.25E+01	1.76E+05	5.89E+05	7.00E+04
REACH	80	0	2002	2.89E+00	4.71E-02	4.61E-02	1.13E+02	8.04E+02	6.41E+01
REACH	81	0	2002	1.14E+01	2.07E-01	2.03E-01	5.85E+02	3.12E+03	2.88E+02
REACH	82	0	2002	1.28E+00	2.33E-02	2.32E-02	1.77E+01	6.58E+01	4.41E+01
REACH	83	0	2002	9.45E-01	1.71E-02	1.71E-02	2.98E+01	1.85E+02	1.81E+02
REACH	84	0	2002	2.66E-01	4.78E-03	4.74E-03	6.24E+00	1.18E+02	7.54E+00
REACH	85	0	2002	6.38E+00	1.20E-01	1.18E-01	1.77E+02	1.26E+03	1.76E+02
REACH	86	0	2002	2.42E+00	4.79E-02	4.70E-02	3.02E+01	1.20E+03	2.88E+02
REACH	87	0	2002	4.41E+00	7.35E-02	7.18E-02	2.10E+02	1.25E+03	1.58E+02
REACH	88	0	2002	7.34E+00	1.32E-01	1.30E-01	1.19E+02	2.41E+03	2.17E+02
REACH	89	0	2002	4.15E+01	1.23E+01	1.23E+01	1.55E+05	5.79E+05	6.90E+04
REACH	90	0	2002	3.15E+00	4.74E-02	4.65E-02	8.68E+01	1.40E+03	1.54E+02
REACH	91	0	2002	1.85E+01	3.09E-01	3.08E-01	1.80E+03	5.79E+03	5.96E+02
REACH	92	0	2002	9.86E+00	2.04E-01	2.04E-01	1.24E+03	3.95E+03	5.00E+02
REACH	93	0	2002	4.71E+00	1.15E-01	1.13E-01	2.38E+02	1.44E+03	1.20E+02
REACH	94	0	2002	4.60E+00	1.16E+01	1.16E+01	2.56E+05	5.64E+05	6.75E+04
REACH	95	0	2002	4.90E+00	8.10E-02	7.94E-02	2.22E+02	1.50E+03	1.14E+02
REACH	96	0	2002	9.49E+00	1.66E-01	1.64E-01	6.65E+02	2.93E+03	3.85E+02
REACH	97	0	2002	1.05E+00	1.82E-02	1.79E-02	1.78E+01	6.09E+02	9.58E+01
REACH	1	0	2003	3.74E+00	4.71E-02	4.81E-02	5.67E+01	8.77E+02	8.69E+02
REACH	2	0	2003	1.07E+01	1.35E-01	1.37E-01	2.31E+02	4.98E+03	2.54E+03
REACH	3	0	2003	4.18E+00	5.13E-02	5.18E-02	6.60E+01	3.34E+02	8.07E+02
REACH	4	0	2003	2.49E+00	3.07E-02	3.08E-02	3.34E+01	1.08E+03	6.16E+02
REACH	5	0	2003	1.64E+01	2.06E-01	2.08E-01	3.67E+02	8.72E+03	3.41E+03
REACH	6	0	2003	9.70E+00	1.20E-01	1.22E-01	1.73E+02	7.41E+03	1.50E+03
REACH	7	0	2003	5.96E+00	7.29E-02	7.45E-02	9.10E+01	4.25E+03	1.17E+03
REACH	8	0	2003	3.02E+01	3.80E-01	3.82E-01	1.22E+03	2.10E+04	5.49E+03
REACH	9	0	2003	2.50E+00	3.18E-02	3.18E-02	8.86E+01	8.70E+02	6.22E+02
REACH	10	0	2003	7.96E+00	9.80E-02	1.00E-01	1.16E+02	1.58E+03	1.09E+03
REACH	11	0	2003	3.68E+00	4.65E-02	4.76E-02	5.97E+01	5.20E+03	8.76E+02
REACH	12	0	2003	1.10E+01	1.42E-01	1.43E-01	2.17E+02	1.78E+04	2.21E+03
REACH	13	0	2003	5.55E+01	7.00E-01	7.05E-01	4.24E+02	5.43E+04	8.44E+03
REACH	14	0	2003	3.81E+00	4.79E-02	4.90E-02	5.49E+01	5.44E+03	8.74E+02
REACH	15	0	2003	2.49E+00	2.81E-02	2.89E-02	2.89E+01	2.82E+03	1.12E+02
REACH	16	0	2003	2.12E+00	2.64E-02	2.69E-02	2.48E+01	8.35E+02	1.90E+02
REACH	17	0	2003	4.25E+00	5.33E-02	5.39E-02	4.62E+01	1.59E+04	9.39E+02
REACH	18	0	2003	2.81E+00	3.73E-02	3.78E-02	3.08E+01	4.42E+03	5.87E+02
REACH	19	0	2003	2.66E+01	3.52E-01	3.55E-01	8.38E+02	1.21E+05	4.02E+03
REACH	20	0	2003	1.69E+01	2.20E-01	2.23E-01	4.83E+02	8.00E+04	2.82E+03
REACH	21	0	2003	5.73E+00	7.72E-02	7.89E-02	8.26E+01	1.09E+04	1.16E+03
REACH	22	0	2003	8.87E+00	1.15E-01	1.17E-01	1.43E+02	4.60E+04	1.85E+03
REACH	23	0	2003	5.22E+00	7.00E-02	7.14E-02	7.17E+01	6.14E+03	8.68E+02
REACH	24	0	2003	9.73E+01	1.26E+00	1.26E+00	4.13E+03	2.15E+05	1.35E+04
REACH	25	0	2003	4.72E+00	8.14E-02	8.26E-02	1.65E+02	3.17E+03	4.79E+02
REACH	26	0	2003	2.81E+00	4.04E-02	4.06E-02	5.65E+01	6.06E+02	1.91E+02
REACH	27	0	2003	1.96E+00	2.52E-02	2.55E-02	3.88E+01	9.67E+02	2.42E+02
REACH	28	0	2003	2.90E+00	4.18E-02	4.21E-02	6.29E+01	5.02E+02	6.94E+01
REACH	29	0	2003	1.04E+02	1.34E+00	1.34E+00	6.13E+03	2.33E+05	1.43E+04
REACH	30	0	2003	3.88E+00	7.12E-02	7.13E-02	4.93E+02	6.59E+02	1.26E+02
REACH	31	0	2003	8.24E+00	1.82E-01	1.84E-01	5.23E+02	3.10E+04	6.00E+03
REACH	32	0	2003	4.35E+00	6.26E-02	6.37E-02	7.21E+01	5.17E+03	1.03E+03
REACH	33	0	2003	2.71E+00	4.17E-02	4.18E-02	1.57E+02	1.52E+03	2.60E+02
REACH	34	0	2003	3.84E+02	1.91E+01	1.91E+01	1.59E+05	1.35E+06	1.43E+05
REACH	35	0	2003	5.41E+00	7.62E-02	7.63E-02	1.60E+02	1.53E+03	4.97E+02
REACH	36	0	2003	4.91E+00	7.57E-02	7.59E-02	2.53E+02	2.89E+03	6.46E+02
REACH	37	0	2003	2.07E+00	3.06E-02	3.06E-02	1.50E+02	4.29E+02	6.62E+01
REACH	38	0	2003	3.18E+00	4.55E-02	4.64E-02	8.63E+01	8.03E+02	6.22E+01
REACH	39	0	2003	4.03E+02	1.94E+01	1.95E+01	8.42E+04	1.40E+06	1.50E+05
REACH	40	0	2003	5.24E+00	8.48E-02	8.62E-02	2.78E+02	2.25E+03	3.42E+02
REACH	41	0	2003	4.86E+00	7.76E-02	7.90E-02	8.09E+01	6.81E+03	1.20E+03
REACH	42	0	2003	4.05E+02	1.95E+01	1.95E+01	5.53E+05	1.40E+06	1.50E+05
REACH	43	0	2003	1.18E+00	1.67E-02	1.68E-02	3.69E+01	5.17E+02	3.79E+01
REACH	44	0	2003	8.13E+00	1.22E-01	1.24E-01	2.32E+02	1.18E+04	1.54E+03
REACH	45	0	2003	1.41E+00	2.29E-02	2.30E-02	4.58E+01	5.39E+02	2.60E+01
REACH	46	0	2003	3.65E+02	1.85E+01	1.85E+01	1.58E+05	1.16E+06	1.16E+05
REACH	47	0	2003	1.11E+02	1.46E+00	1.46E+00	7.40E+03	2.48E+05	1.50E+04
REACH	48	0	2003	3.97E+01	5.67E-01	5.66E-01	2.68E+03	6.44E+04	5.45E+03
REACH	49	0	2003	2.33E+00	2.94E-02	2.98E-02	8.07E+01	7.42E+02	1.71E+02
REACH	50	0	2003	2.09E+01	3.15E-01	3.16E-01	1.24E+03	9.58E+03	1.66E+03
REACH	51	0	2003	1.67E+02	2.25E+00	2.25E+00	1.34E+04	3.43E+05	2.18E+04
REACH	52	0	2003	1.89E+00	2.75E-02	2.76E-02	4.43E+01	5.81E+02	1.54E+02
REACH	53	0	2003	1.60E+01	2.22E-01	2.25E-01	6.14E+02	2.64E+04	2.29E+03
REACH	54	0	2003	1.73E+01	2.69E-01	2.69E-01	9.60E+02	4.67E+03	6.87E+02
REACH	55	0	2003	3.94E+00	5.08E-02	5.20E-02	5.61E+01	7.21E+03	5.09E+02
REACH	56	0	2003	1.34E+01	2.05E-01	2.05E-01	1.07E+03	1.97E+03	3.01E+02
REACH	57	0	2003	9.64E+00	1.56E-01	1.58E-01	2.56E+02	2.79E+03	1.96E+02
REACH	58	0	2003	3.44E+02	1.82E+01	1.82E+01	1.16E+05	1.15E+06	1.16E+05
REACH	59	0	2003	3.24E+00	4.18E-02	4.22E-02	1.10E+02	6.46E+02	1.23E+02
REACH	60	0	2003	5.68E+00	9.58E-02	9.76E-02	8.88E+01	5.15E+03	9.89E+02
REACH	61	0	2003	1.12E+01	1.49E-01	1.52E-01	3.51E+02	1.47E+04	1.68E+03
REACH	62	0	2003	1.92E+02	2.62E+00	2.62E+00	2.03E+04	3.62E+05	2.40E+04
REACH	63	0	2003	1.98E+02	2.71E+00	2.71E+00	8.71E+03	3.78E+05	2.44E+04
REACH	64	0	2003	6.58E+00	8.30E-02	8.43E-02	1.02E+02	7.05E+03	1.20E+03
REACH	65	0	2003	3.65E+00	4.92E-02	5.02E-02	1.29E+02	9.50E+02	6.39E+01
REACH	66	0	2003	8.10E+00	1.31E-01	1.33E-01	3.23E+02	1.13E+03	1.92E+02
REACH	67	0	2003	9.65E+01	1.47E+01	1.47E+01	1.05E+05	7.48E+05	8.93E+04
REACH	68	0	2003	7.89E+00	1.33E-01	1.35E-01	2.80E+02	2.05E+03	3.93E+02
REACH	69	0	2003	3.21E+01	4.92E-01	4.92E-01	3.37E+03	8.98E+03	9.50E+02
REACH	70	0	2003	5.92E+00	1.09E-01	1.10E-01	3.51E+02	1.84E+03	5.73E+02
REACH	71	0	2003	3.90E+00	6.31E-02	6.41E-02	8.69E+01	4.10E+02	9.36E+01
REACH	72	0	2003	2.92E+00	4.02E-02	4.10E-02	7.61E+01	1.85E+03	1.69E+02
REACH	73	0	2003	4.77E+00	6.44E-02	6.59E-02	7.89E+01	2.59E+03	5.55E+02
REACH	74	0	2003	1.45E+01	2.09E-01	2.12E-01	4.41E+02	4.06E+03	5.52E+02
REACH	75	0	2003	6.68E+00	1.03E-01	1.03E-01	5.88E+02	1.19E+03	2.66E+02
REACH	76	0	2003	6.79E+00	8.88E-02	9.09E-02	1.12E+02	4.19E+03	1.45E+03
REACH	77	0	2003	1.10E+01	1.44E-01	1.47E-01	4.44E+02	7.69E+03	1.59E+03
REACH	78	0	2003	2.01E+01	2.76E-01	2.76E-01	1.71E+03	1.53E+04	2.27E+03
REACH	79	0	2003	5.41E+01	1.39E+01	1.39E+01	1.87E+05	6.28E+05	7.50E+04
REACH	80	0	2003	2.89E+00	3.84E-02	3.93E-02	7.58E+01	6.34E+02	6.53E+01
REACH	81	0	2003	1.14E+01	1.75E-01	1.78E-01	3.97E+02	2.62E+03	2.70E+02
REACH	82	0	2003	1.28E+00	1.94E-02	1.95E-02	1.38E+01	5.76E+01	3.57E+01
REACH	83	0	2003	9.45E-01	1.43E-02	1.43E-02	2.39E+01	1.02E+02	1.30E+02
REACH	84	0	2003	2.66E-01	4.11E-03	4.13E-03	5.25E+00	7.22E+01	8.38E+00
REACH	85	0	2003	6.38E+00	1.01E-01	1.02E-01	1.55E+02	9.10E+02	1.62E+02
REACH	86	0	2003	2.42E+00	4.22E-02	4.29E-02	2.66E+01	5.69E+02	2.83E+02
REACH	87	0	2003	4.41E+00	6.08E-02	6.22E-02	1.75E+02	9.57E+02	1.47E+02
REACH	88	0	2003	7.34E+00	1.09E-01	1.12E-01	1.07E+02	1.73E+03	2.00E+02
REACH	89	0	2003	4.15E+01	1.37E+01	1.37E+01	1.68E+05	6.21E+05	7.40E+04
REACH	90	0	2003	3.15E+00	4.19E-02	4.27E-02	8.03E+01	9.62E+02	1.43E+02
REACH	91	0	2003	1.85E+01	2.49E-01	2.49E-01	9.51E+02	4.87E+03	5.47E+02
REACH	92	0	2003	9.86E+00	1.79E-01	1.79E-01	9.29E+02	2.55E+03	4.63E+02
REACH	93	0	2003	4.71E+00	9.57E-02	9.71E-02	1.97E+02	1.10E+03	1.16E+02
REACH	94	0	2003	4.60E+00	1.32E+01	1.32E+01	2.74E+05	6.10E+05	7.25E+04
REACH	95	0	2003	4.90E+00	6.49E-02	6.61E-02	1.49E+02	1.16E+03	1.26E+02
REACH	96	0	2003	9.49E+00	1.29E-01	1.30E-01	4.39E+02	2.10E+03	3.12E+02
REACH	97	0	2003	1.05E+00	1.51E-02	1.53E-02	1.37E+01	3.54E+02	7.57E+01
REACH	1	0	2004	3.74E+00	5.29E-02	5.29E-02	7.65E+01	7.69E+02	8.05E+02
REACH	2	0	2004	1.07E+01	1.56E-01	1.56E-01	2.77E+02	4.14E+03	2.38E+03
REACH	3	0	2004	4.18E+00	6.11E-02	6.10E-02	8.58E+01	5.93E+02	9.34E+02
REACH	4	0	2004	2.49E+00	3.69E-02	3.69E-02	4.60E+01	9.39E+02	6.50E+02
REACH	5	0	2004	1.64E+01	2.38E-01	2.38E-01	4.16E+02	7.47E+03	3.22E+03
REACH	6	0	2004	9.70E+00	1.40E-01	1.40E-01	2.14E+02	5.08E+03	1.53E+03
REACH	7	0	2004	5.96E+00	8.69E-02	8.68E-02	1.13E+02	2.99E+03	1.22E+03
REACH	8	0	2004	3.02E+01	4.37E-01	4.37E-01	1.52E+03	1.57E+04	5.24E+03
REACH	9	0	2004	2.50E+00	3.71E-02	3.71E-02	1.19E+02	9.98E+02	6.43E+02
REACH	10	0	2004	7.96E+00	1.15E-01	1.15E-01	1.37E+02	1.95E+03	1.16E+03
REACH	11	0	2004	3.68E+00	5.65E-02	5.64E-02	7.59E+01	2.00E+03	9.56E+02
REACH	12	0	2004	1.10E+01	1.68E-01	1.68E-01	2.66E+02	7.25E+03	2.23E+03
REACH	13	0	2004	5.55E+01	8.06E-01	8.05E-01	5.11E+02	3.18E+04	8.19E+03
REACH	14	0	2004	3.81E+00	5.87E-02	5.86E-02	7.68E+01	2.51E+03	8.66E+02
REACH	15	0	2004	2.49E+00	3.31E-02	3.31E-02	5.34E+01	1.63E+03	8.70E+01
REACH	16	0	2004	2.12E+00	2.95E-02	2.95E-02	3.53E+01	5.25E+02	1.39E+02
REACH	17	0	2004	4.25E+00	6.55E-02	6.54E-02	6.23E+01	4.70E+03	9.79E+02
REACH	18	0	2004	2.81E+00	4.31E-02	4.31E-02	4.39E+01	1.90E+03	5.19E+02
REACH	19	0	2004	2.66E+01	4.01E-01	4.01E-01	9.83E+02	2.98E+04	3.47E+03
REACH	20	0	2004	1.69E+01	2.53E-01	2.53E-01	6.47E+02	1.94E+04	2.58E+03
REACH	21	0	2004	5.73E+00	9.16E-02	9.15E-02	1.08E+02	4.19E+03	1.03E+03
REACH	22	0	2004	8.87E+00	1.35E-01	1.35E-01	1.75E+02	1.05E+04	1.80E+03
REACH	23	0	2004	5.22E+00	8.10E-02	8.10E-02	9.79E+01	3.23E+03	7.16E+02
REACH	24	0	2004	9.73E+01	1.43E+00	1.43E+00	5.00E+03	7.73E+04	1.24E+04
REACH	25	0	2004	4.72E+00	8.72E-02	8.71E-02	2.18E+02	2.60E+03	3.98E+02
REACH	26	0	2004	2.81E+00	4.27E-02	4.27E-02	8.42E+01	4.53E+02	1.42E+02
REACH	27	0	2004	1.96E+00	2.86E-02	2.86E-02	5.44E+01	7.18E+02	2.20E+02
REACH	28	0	2004	2.90E+00	4.75E-02	4.75E-02	8.14E+01	4.82E+02	7.91E+01
REACH	29	0	2004	1.04E+02	1.53E+00	1.53E+00	7.59E+03	8.57E+04	1.28E+04
REACH	30	0	2004	3.88E+00	7.42E-02	7.42E-02	5.11E+02	6.98E+02	1.14E+02
REACH	31	0	2004	8.24E+00	1.96E-01	1.96E-01	6.40E+02	3.89E+04	7.08E+03
REACH	32	0	2004	4.35E+00	6.82E-02	6.81E-02	9.03E+01	5.07E+03	8.47E+02
REACH	33	0	2004	2.71E+00	4.41E-02	4.40E-02	2.04E+02	1.52E+03	1.97E+02